%NProc=8
%mem=16gb
%Chk=p-b3lyp-pvdz.chk
#P PBE1PBE/gen EmpiricalDispersion=GD3 scf(fermi,xqc,maxcycle=200)

benzene dimer

0 1
C   0.000000 3.684966 2.629554
H   0.000000 3.684966 4.670458
C   2.277260 3.684966 1.314777
H   4.044735 3.684966 2.335229
C   2.277260 3.684966 -1.314777
H   4.044735 3.684966 -2.335229
C   -0.000000 3.684966 -2.629554
H   -0.000000 3.684966 -4.670458
C   -2.277260 3.684966 -1.314777
H   -4.044735 3.684966 -2.335229
C   -2.277260 3.684966 1.314777
H   -4.044735 3.684966 2.335229
C   0.000000 4.684966 2.629554
H   0.000000 4.684966 4.670458
C   2.277260 4.684966 1.314777
H   4.044735 4.684966 2.335229
C   2.277260 4.684966 -1.314777
H   4.044735 4.684966 -2.335229
C   0.000000 4.684966 -2.629554
H   0.000000 4.684966 -4.670458
C   -2.277260 4.684966 -1.314777
H   -4.044735 4.684966 -2.335229
C   -2.277260 4.684966 1.314777
H   -4.044735 4.684966 2.335229

@/home/MARQNET/talipovm/basis-library/def2-TZVPPD.gbs

